*Heading
** Job name: beam-macro-RVEs-model-2 Model name: Model-2
** Generated by: Abaqus/CAE 6.14-2
*Preprint, echo=NO, model=NO, history=NO, contact=NO
**
** PARTS
**
*Part, name=Part-1
*Node
      1,   50.0600014,   47.2000008
      2,   50.0600014,   47.5600014
      3,   48.2922325,   48.2922325
      4,   47.5600014,   50.0600014
      5,   47.2000008,   50.0600014
      6,   47.2000008,   47.2000008
      7,   48.5600014,   48.5600014
      8,   49.3100014,   48.5600014
      9,   50.0600014,   48.5600014
     10,   48.5600014,   49.3100014
     11,   48.5600014,   50.0600014
     12,   50.0600014,   50.0600014
     13,   48.2922325,   46.1077652
     14,   50.0600014,   46.8400002
     15,   47.2000008,   44.3400002
     16,   47.5600014,   44.3400002
     17,   48.5600014,   44.3400002
     18,   48.5600014,   45.0900002
     19,   48.5600014,   45.8400002
     20,   49.3100014,   45.8400002
** ... 325 like lines cut
*Element, type=CPS4
  1,  42,  43, 186, 182
  2,  43,  44, 185, 186
  3,  44,  45, 184, 185
  4,  45,  46, 183, 184
  5,  46,   1,  47, 183
  6,  47,   2,  48, 183
  7, 183,  48,  49, 184
  8, 184,  49,  50, 185
  9, 185,  50,  51, 186
 10, 186,  51,   3, 182
 11,   3,  52, 190, 182
 12,  52,  53, 189, 190
 13,  53,  54, 188, 189
 14,  54,  55, 187, 188
 15,  55,   4,  56, 187
 16,  56,   5,  57, 187
 17, 187,  57,  58, 188
 18, 188,  58,  59, 189
 19, 189,  59,  60, 190
 20, 190,  60,  61, 182
** ... 284 like lines cut
*Nset, nset=FIBRES
   2,   3,   4,   7,   8,   9,  10,  11,  12,  13,  14,  16,  17,  18,  19,  20
  21,  22,  23,  24,  25,  26,  27,  28,  29,  30,  31,  33,  34,  35,  36,  37
  38,  39,  40,  41,  48,  49,  50,  51,  52,  53,  54,  55,  62,  63,  64,  65
  66,  67,  68,  69,  70,  71,  72,  73,  74,  75,  76,  77,  78,  79,  80,  81
  82,  83,  84,  85,  93,  94,  95,  96,  97,  98,  99, 100, 101, 102, 103, 104
 105, 106, 107, 108, 109, 110, 111, 112, 113, 114, 115, 116, 117, 118, 119, 120
 121, 122, 123, 124, 125, 126, 127, 128, 129, 130, 131, 132, 133, 134, 135, 136
 137, 138, 139, 140, 141, 142, 143, 144, 153, 154, 155, 156, 157, 158, 159, 160
 162, 163, 164, 165, 166, 167, 168, 169, 170, 171, 172, 173, 174, 175, 176, 177
 178, 179, 180, 181, 191, 192, 193, 194, 195, 196, 197, 198, 199, 200, 201, 202
 203, 204, 205, 206, 207, 208, 209, 210, 211, 212, 213, 214, 215, 216, 217, 218
 219, 220, 221, 222, 232, 233, 234, 235, 236, 237, 238, 239, 240, 241, 242, 243
 244, 245, 246, 247, 248, 249, 250, 251, 252, 253, 254, 255, 256, 257, 258, 259
 260, 261, 262, 263, 264, 265, 266, 267, 268, 269, 270, 271, 272, 273, 274, 275
 276, 277, 278, 279, 280, 281, 282, 283, 284, 285, 286, 287, 288, 289, 290, 291
 292, 293, 294, 295, 314, 315, 316, 317, 318, 319, 320, 321, 322, 323, 324, 325
 326, 327, 328, 329, 330, 331, 332, 333, 334, 335, 336, 337, 338, 339, 340, 341
 342, 343, 344, 345
*Elset, elset=FIBRES
  22,  23,  24,  25,  26,  27,  28,  29,  30,  31,  32,  33,  34,  35,  36,  37
  38,  39,  40,  41,  42,  43,  44,  45,  46,  47,  48,  49,  50,  51,  52,  53
  54,  55,  56,  57,  58,  59,  60,  61,  62,  63,  64,  65,  66,  67,  68,  69
  70,  71,  72,  73,  74,  75,  76,  98,  99, 100, 101, 102, 103, 104, 105, 106
 107, 108, 109, 110, 111, 112, 113, 114, 115, 116, 117, 118, 119, 120, 121, 122
 123, 124, 125, 126, 127, 128, 129, 130, 131, 132, 133, 134, 135, 136, 137, 138
 139, 140, 141, 142, 143, 144, 145, 146, 147, 148, 149, 150, 151, 152, 153, 154
 155, 156, 157, 158, 159, 160, 161, 162, 163, 164, 165, 166, 167, 168, 169, 170
 171, 172, 173, 174, 175, 176, 177, 178, 179, 180, 181, 182, 183, 184, 185, 186
 187, 188, 189, 190, 191, 192, 193, 194, 195, 196, 197, 198, 199, 200, 201, 202
 203, 204, 205, 206, 207, 250, 251, 252, 253, 254, 255, 256, 257, 258, 259, 260
 261, 262, 263, 264, 265, 266, 267, 268, 269, 270, 271, 272, 273, 274, 275, 276
 277, 278, 279, 280, 281, 282, 283, 284, 285, 286, 287, 288, 289, 290, 291, 292
 293, 294, 295, 296, 297, 298, 299, 300, 301, 302, 303, 304
*Nset, nset=MATRIX
   1,   2,   3,   4,   5,   6,  13,  14,  15,  16,  23,  27,  29,  32,  33,  34
  35,  42,  43,  44,  45,  46,  47,  48,  49,  50,  51,  52,  53,  54,  55,  56
  57,  58,  59,  60,  61,  82,  83,  84,  85,  86,  87,  88,  89,  90,  91,  92
  93,  94,  95,  96, 124, 125, 126, 127, 130, 131, 132, 133, 145, 146, 147, 148
 149, 150, 151, 152, 153, 154, 155, 156, 157, 158, 159, 160, 161, 182, 183, 184
 185, 186, 187, 188, 189, 190, 223, 224, 225, 226, 227, 228, 229, 230, 231, 296
 297, 298, 299, 300, 301, 302, 303, 304, 305, 306, 307, 308, 309, 310, 311, 312
 313,
*Elset, elset=MATRIX
   1,   2,   3,   4,   5,   6,   7,   8,   9,  10,  11,  12,  13,  14,  15,  16
  17,  18,  19,  20,  21,  77,  78,  79,  80,  81,  82,  83,  84,  85,  86,  87
  88,  89,  90,  91,  92,  93,  94,  95,  96,  97, 208, 209, 210, 211, 212, 213
 214, 215, 216, 217, 218, 219, 220, 221, 222, 223, 224, 225, 226, 227, 228, 229
 230, 231, 232, 233, 234, 235, 236, 237, 238, 239, 240, 241, 242, 243, 244, 245
 246, 247, 248, 249
*Nset, nset=Face11
   1,   2,   9,  12,  14,  21,  22,  47,  64,  65,  78,  79,  80,  81,  86, 107
 108, 113, 114, 115, 116
*Elset, elset=Face11
   5,   6,  34,  35,  36,  52,  57,  62,  67,  72,  81,  82, 125, 126, 127, 148
 149, 150, 151, 152
*Nset, nset=Face12
   4,   5,  11,  12,  23,  24,  31,  56,  72,  73,  74,  75,  76,  77, 117, 118
 141, 142, 143, 144, 151
*Elset, elset=Face12
  15,  16,  49,  50,  51,  52,  53,  54,  55,  56, 153, 154, 155, 183, 188, 193
 198, 203, 223, 224
*Nset, nset=Face13
  28,  29,  31,  32,  33,  39,  41, 128, 129, 137, 138, 139, 140, 145, 152, 169
 170, 174, 175, 176, 177
*Elset, elset=Face13
 168, 169, 170, 183, 184, 185, 186, 187, 212, 213, 233, 234, 265, 266, 267, 280
 281, 282, 283, 284
*Nset, nset=Face14
  15,  16,  17,  22,  35,  36,  41,  92,  97,  98, 109, 110, 111, 112, 161, 162
 163, 178, 179, 180, 181
*Elset, elset=Face14
  92,  93,  98,  99, 100, 132, 137, 142, 147, 152, 243, 244, 250, 251, 252, 284
 289, 294, 299, 304
*Nset, nset=Vertex11
 12,
*Nset, nset=Vertex13
 41,
*Nset, nset=Vertex14
 22,
*Nset, nset=Vertex12
 31,
*Nset, nset=M11
 1,
*Nset, nset=M12
 5,
*Nset, nset=M13
 32,
*Nset, nset=M14
 15,
*Nset, nset=Faces
   1,   2,   4,   5,   9,  11,  12,  14,  15,  16,  17,  21,  22,  23,  24,  28
  29,  31,  32,  33,  35,  36,  39,  41,  47,  56,  64,  65,  72,  73,  74,  75
  76,  77,  78,  79,  80,  81,  86,  92,  97,  98, 107, 108, 109, 110, 111, 112
 113, 114, 115, 116, 117, 118, 128, 129, 137, 138, 139, 140, 141, 142, 143, 144
 145, 151, 152, 161, 162, 163, 169, 170, 174, 175, 176, 177, 178, 179, 180, 181
*Elset, elset=Faces
   5,   6,  15,  16,  34,  35,  36,  49,  50,  51,  52,  53,  54,  55,  56,  57
  62,  67,  72,  81,  82,  92,  93,  98,  99, 100, 125, 126, 127, 132, 137, 142
 147, 148, 149, 150, 151, 152, 153, 154, 155, 168, 169, 170, 183, 184, 185, 186
 187, 188, 193, 198, 203, 212, 213, 223, 224, 233, 234, 243, 244, 250, 251, 252
 265, 266, 267, 280, 281, 282, 283, 284, 289, 294, 299, 304
** Section: Section-1-MATRIX
*Solid Section, elset=MATRIX, material=EPOXY-ELASTIC
100.,
** Section: Section-2-FIBRES
*Solid Section, elset=FIBRES, material=CARBON-FIBRE-ISOTROPIC
100.,
*End Part
**  
*Part, name=beam
*Node
      1,  -57.2000008,  -57.2000008
      2,           0.,  -57.2000008
      3,   57.2000008,  -57.2000008
      4,   114.400002,  -57.2000008
      5,   171.600006,  -57.2000008
      6,   228.800003,  -57.2000008
      7,         286.,  -57.2000008
      8,   343.200012,  -57.2000008
      9,   400.399994,  -57.2000008
     10,   457.600006,  -57.2000008
     11,   514.799988,  -57.2000008
     12,         572.,  -57.2000008
     13,   629.200012,  -57.2000008
     14,   686.400024,  -57.2000008
     15,   743.599976,  -57.2000008
     16,   800.799988,  -57.2000008
     17,         858.,  -57.2000008
     18,   915.200012,  -57.2000008
     19,   972.400024,  -57.2000008
     20,   1029.59998,  -57.2000008
** ... 43 like lines cut
*Element, type=CPS4
 1,  1,  2, 23, 22
 2,  2,  3, 24, 23
 3,  3,  4, 25, 24
 4,  4,  5, 26, 25
 5,  5,  6, 27, 26
 6,  6,  7, 28, 27
 7,  7,  8, 29, 28
 8,  8,  9, 30, 29
 9,  9, 10, 31, 30
10, 10, 11, 32, 31
11, 11, 12, 33, 32
12, 12, 13, 34, 33
13, 13, 14, 35, 34
14, 14, 15, 36, 35
15, 15, 16, 37, 36
16, 16, 17, 38, 37
17, 17, 18, 39, 38
18, 18, 19, 40, 39
19, 19, 20, 41, 40
20, 20, 21, 42, 41
** ... 20 like lines cut
*Nset, nset=SET-1, generate
  1,  63,   1
*Elset, elset=SET-1, generate
  1,  40,   1
** Section: Section-3-SET-1
*Solid Section, elset=SET-1, material=MATERIAL-7
,
*End Part
**  
**
** ASSEMBLY
**
*Assembly, name=Assembly
**  
*Instance, name=beam-1, part=beam
*End Instance
**  
*Instance, name=Part-1-ele-1-GP-1, part=Part-1
-92.3122193298, -92.3122193298,           0.
*End Instance
**  
*Instance, name=Part-1-ele-1-GP-2, part=Part-1
-59.2877834702, -92.3122193298,           0.
*End Instance
**  
*Instance, name=Part-1-ele-1-GP-3, part=Part-1
-59.2877834702, -59.2877834702,           0.
*End Instance
**  
*Instance, name=Part-1-ele-1-GP-4, part=Part-1
-92.3122193298, -59.2877834702,           0.
*End Instance
**  
*Instance, name=Part-1-ele-2-GP-1, part=Part-1
-35.1122185298, -92.3122193298,           0.
*End Instance
**  
*Instance, name=Part-1-ele-2-GP-2, part=Part-1
-2.08778267024, -92.3122193298,           0.
*End Instance
**  
*Instance, name=Part-1-ele-2-GP-3, part=Part-1
-2.08778267024, -59.2877834702,           0.
*End Instance
**  
*Instance, name=Part-1-ele-2-GP-4, part=Part-1
-35.1122185298, -59.2877834702,           0.
*End Instance
**  
*Instance, name=Part-1-ele-3-GP-1, part=Part-1
22.0877823548, -92.3122193298,           0.
*End Instance
**  
*Instance, name=Part-1-ele-3-GP-2, part=Part-1
55.1122184452, -92.3122193298,           0.
*End Instance
**  
*Instance, name=Part-1-ele-3-GP-3, part=Part-1
55.1122184452, -59.2877834702,           0.
*End Instance
**  
*Instance, name=Part-1-ele-3-GP-4, part=Part-1
22.0877823548, -59.2877834702,           0.
*End Instance
**  
*Instance, name=Part-1-ele-4-GP-1, part=Part-1
79.2877841465, -92.3122193298,           0.
*End Instance
**  
*Instance, name=Part-1-ele-4-GP-2, part=Part-1
112.312221854, -92.3122193298,           0.
*End Instance
**  
*Instance, name=Part-1-ele-4-GP-3, part=Part-1
112.312221854, -59.2877834702,           0.
*End Instance
**  
*Instance, name=Part-1-ele-4-GP-4, part=Part-1
79.2877841465, -59.2877834702,           0.
*End Instance
**  
*Instance, name=Part-1-ele-5-GP-1, part=Part-1
136.487786667, -92.3122193298,           0.
*End Instance
**  
*Instance, name=Part-1-ele-5-GP-2, part=Part-1
169.512220333, -92.3122193298,           0.
*End Instance
**  
*Instance, name=Part-1-ele-5-GP-3, part=Part-1
169.512220333, -59.2877834702,           0.
*End Instance
**  
*Instance, name=Part-1-ele-5-GP-4, part=Part-1
136.487786667, -59.2877834702,           0.
*End Instance
**  
*Instance, name=Part-1-ele-6-GP-1, part=Part-1
193.687783667, -92.3122193298,           0.
*End Instance
**  
*Instance, name=Part-1-ele-6-GP-2, part=Part-1
226.712217333, -92.3122193298,           0.
*End Instance
**  
*Instance, name=Part-1-ele-6-GP-3, part=Part-1
226.712217333, -59.2877834702,           0.
*End Instance
**  
*Instance, name=Part-1-ele-6-GP-4, part=Part-1
193.687783667, -59.2877834702,           0.
*End Instance
**  
*Instance, name=Part-1-ele-7-GP-1, part=Part-1
250.887783837, -92.3122193298,           0.
*End Instance
**  
*Instance, name=Part-1-ele-7-GP-2, part=Part-1
283.912226163, -92.3122193298,           0.
*End Instance
**  
*Instance, name=Part-1-ele-7-GP-3, part=Part-1
283.912226163, -59.2877834702,           0.
*End Instance
**  
*Instance, name=Part-1-ele-7-GP-4, part=Part-1
250.887783837, -59.2877834702,           0.
*End Instance
**  
*Instance, name=Part-1-ele-8-GP-1, part=Part-1
308.087789497, -92.3122193298,           0.
*End Instance
**  
*Instance, name=Part-1-ele-8-GP-2, part=Part-1
341.112214503, -92.3122193298,           0.
*End Instance
**  
*Instance, name=Part-1-ele-8-GP-3, part=Part-1
341.112214503, -59.2877834702,           0.
*End Instance
**  
*Instance, name=Part-1-ele-8-GP-4, part=Part-1
308.087789497, -59.2877834702,           0.
*End Instance
**  
*Instance, name=Part-1-ele-9-GP-1, part=Part-1
365.287777837, -92.3122193298,           0.
*End Instance
**  
*Instance, name=Part-1-ele-9-GP-2, part=Part-1
398.312220163, -92.3122193298,           0.
*End Instance
**  
*Instance, name=Part-1-ele-9-GP-3, part=Part-1
398.312220163, -59.2877834702,           0.
*End Instance
**  
*Instance, name=Part-1-ele-9-GP-4, part=Part-1
365.287777837, -59.2877834702,           0.
*End Instance
**  
*Instance, name=Part-1-ele-10-GP-1, part=Part-1
422.487783497, -92.3122193298,           0.
*End Instance
**  
*Instance, name=Part-1-ele-10-GP-2, part=Part-1
455.512208503, -92.3122193298,           0.
*End Instance
**  
*Instance, name=Part-1-ele-10-GP-3, part=Part-1
455.512208503, -59.2877834702,           0.
*End Instance
**  
*Instance, name=Part-1-ele-10-GP-4, part=Part-1
422.487783497, -59.2877834702,           0.
*End Instance
**  
*Instance, name=Part-1-ele-11-GP-1, part=Part-1
479.687771837, -92.3122193298,           0.
*End Instance
**  
*Instance, name=Part-1-ele-11-GP-2, part=Part-1
512.712214163, -92.3122193298,           0.
*End Instance
**  
*Instance, name=Part-1-ele-11-GP-3, part=Part-1
512.712214163, -59.2877834702,           0.
*End Instance
**  
*Instance, name=Part-1-ele-11-GP-4, part=Part-1
479.687771837, -59.2877834702,           0.
*End Instance
**  
*Instance, name=Part-1-ele-12-GP-1, part=Part-1
536.887783837, -92.3122193298,           0.
*End Instance
**  
*Instance, name=Part-1-ele-12-GP-2, part=Part-1
569.912226163, -92.3122193298,           0.
*End Instance
**  
*Instance, name=Part-1-ele-12-GP-3, part=Part-1
569.912226163, -59.2877834702,           0.
*End Instance
**  
*Instance, name=Part-1-ele-12-GP-4, part=Part-1
536.887783837, -59.2877834702,           0.
*End Instance
**  
*Instance, name=Part-1-ele-13-GP-1, part=Part-1
594.087795837, -92.3122193298,           0.
*End Instance
**  
*Instance, name=Part-1-ele-13-GP-2, part=Part-1
627.112238163, -92.3122193298,           0.
*End Instance
**  
*Instance, name=Part-1-ele-13-GP-3, part=Part-1
627.112238163, -59.2877834702,           0.
*End Instance
**  
*Instance, name=Part-1-ele-13-GP-4, part=Part-1
594.087795837, -59.2877834702,           0.
*End Instance
**  
*Instance, name=Part-1-ele-14-GP-1, part=Part-1
651.287795158, -92.3122193298,           0.
*End Instance
**  
*Instance, name=Part-1-ele-14-GP-2, part=Part-1
684.312202842, -92.3122193298,           0.
*End Instance
**  
*Instance, name=Part-1-ele-14-GP-3, part=Part-1
684.312202842, -59.2877834702,           0.
*End Instance
**  
*Instance, name=Part-1-ele-14-GP-4, part=Part-1
651.287795158, -59.2877834702,           0.
*End Instance
**  
*Instance, name=Part-1-ele-15-GP-1, part=Part-1
708.487759837, -92.3122193298,           0.
*End Instance
**  
*Instance, name=Part-1-ele-15-GP-2, part=Part-1
741.512202163, -92.3122193298,           0.
*End Instance
**  
*Instance, name=Part-1-ele-15-GP-3, part=Part-1
741.512202163, -59.2877834702,           0.
*End Instance
**  
*Instance, name=Part-1-ele-15-GP-4, part=Part-1
708.487759837, -59.2877834702,           0.
*End Instance
**  
*Instance, name=Part-1-ele-16-GP-1, part=Part-1
765.687771837, -92.3122193298,           0.
*End Instance
**  
*Instance, name=Part-1-ele-16-GP-2, part=Part-1
798.712214163, -92.3122193298,           0.
*End Instance
**  
*Instance, name=Part-1-ele-16-GP-3, part=Part-1
798.712214163, -59.2877834702,           0.
*End Instance
**  
*Instance, name=Part-1-ele-16-GP-4, part=Part-1
765.687771837, -59.2877834702,           0.
*End Instance
**  
*Instance, name=Part-1-ele-17-GP-1, part=Part-1
822.887783837, -92.3122193298,           0.
*End Instance
**  
*Instance, name=Part-1-ele-17-GP-2, part=Part-1
855.912226163, -92.3122193298,           0.
*End Instance
**  
*Instance, name=Part-1-ele-17-GP-3, part=Part-1
855.912226163, -59.2877834702,           0.
*End Instance
**  
*Instance, name=Part-1-ele-17-GP-4, part=Part-1
822.887783837, -59.2877834702,           0.
*End Instance
**  
*Instance, name=Part-1-ele-18-GP-1, part=Part-1
880.087795837, -92.3122193298,           0.
*End Instance
**  
*Instance, name=Part-1-ele-18-GP-2, part=Part-1
913.112238163, -92.3122193298,           0.
*End Instance
**  
*Instance, name=Part-1-ele-18-GP-3, part=Part-1
913.112238163, -59.2877834702,           0.
*End Instance
**  
*Instance, name=Part-1-ele-18-GP-4, part=Part-1
880.087795837, -59.2877834702,           0.
*End Instance
**  
*Instance, name=Part-1-ele-19-GP-1, part=Part-1
937.287796003, -92.3122193298,           0.
*End Instance
**  
*Instance, name=Part-1-ele-19-GP-2, part=Part-1
970.312205997, -92.3122193298,           0.
*End Instance
**  
*Instance, name=Part-1-ele-19-GP-3, part=Part-1
970.312205997, -59.2877834702,           0.
*End Instance
**  
*Instance, name=Part-1-ele-19-GP-4, part=Part-1
937.287796003, -59.2877834702,           0.
*End Instance
**  
*Instance, name=Part-1-ele-20-GP-1, part=Part-1
994.487776094, -92.3122193298,           0.
*End Instance
**  
*Instance, name=Part-1-ele-20-GP-2, part=Part-1
1027.51225191, -92.3122193298,           0.
*End Instance
**  
*Instance, name=Part-1-ele-20-GP-3, part=Part-1
1027.51225191, -59.2877834702,           0.
*End Instance
**  
*Instance, name=Part-1-ele-20-GP-4, part=Part-1
994.487776094, -59.2877834702,           0.
*End Instance
**  
*Instance, name=Part-1-ele-21-GP-1, part=Part-1
-92.3122193298, -35.1122185298,           0.
*End Instance
**  
*Instance, name=Part-1-ele-21-GP-2, part=Part-1
-59.2877834702, -35.1122185298,           0.
*End Instance
**  
*Instance, name=Part-1-ele-21-GP-3, part=Part-1
-59.2877834702, -2.08778267024,           0.
*End Instance
**  
*Instance, name=Part-1-ele-21-GP-4, part=Part-1
-92.3122193298, -2.08778267024,           0.
*End Instance
**  
*Instance, name=Part-1-ele-22-GP-1, part=Part-1
-35.1122185298, -35.1122185298,           0.
*End Instance
**  
*Instance, name=Part-1-ele-22-GP-2, part=Part-1
-2.08778267024, -35.1122185298,           0.
*End Instance
**  
*Instance, name=Part-1-ele-22-GP-3, part=Part-1
-2.08778267024, -2.08778267024,           0.
*End Instance
**  
*Instance, name=Part-1-ele-22-GP-4, part=Part-1
-35.1122185298, -2.08778267024,           0.
*End Instance
**  
*Instance, name=Part-1-ele-23-GP-1, part=Part-1
22.0877823548, -35.1122185298,           0.
*End Instance
**  
*Instance, name=Part-1-ele-23-GP-2, part=Part-1
55.1122184452, -35.1122185298,           0.
*End Instance
**  
*Instance, name=Part-1-ele-23-GP-3, part=Part-1
55.1122184452, -2.08778267024,           0.
*End Instance
**  
*Instance, name=Part-1-ele-23-GP-4, part=Part-1
22.0877823548, -2.08778267024,           0.
*End Instance
**  
*Instance, name=Part-1-ele-24-GP-1, part=Part-1
79.2877841465, -35.1122185298,           0.
*End Instance
**  
*Instance, name=Part-1-ele-24-GP-2, part=Part-1
112.312221854, -35.1122185298,           0.
*End Instance
**  
*Instance, name=Part-1-ele-24-GP-3, part=Part-1
112.312221854, -2.08778267024,           0.
*End Instance
**  
*Instance, name=Part-1-ele-24-GP-4, part=Part-1
79.2877841465, -2.08778267024,           0.
*End Instance
**  
*Instance, name=Part-1-ele-25-GP-1, part=Part-1
136.487786667, -35.1122185298,           0.
*End Instance
**  
*Instance, name=Part-1-ele-25-GP-2, part=Part-1
169.512220333, -35.1122185298,           0.
*End Instance
**  
*Instance, name=Part-1-ele-25-GP-3, part=Part-1
169.512220333, -2.08778267024,           0.
*End Instance
**  
*Instance, name=Part-1-ele-25-GP-4, part=Part-1
136.487786667, -2.08778267024,           0.
*End Instance
**  
*Instance, name=Part-1-ele-26-GP-1, part=Part-1
193.687783667, -35.1122185298,           0.
*End Instance
**  
*Instance, name=Part-1-ele-26-GP-2, part=Part-1
226.712217333, -35.1122185298,           0.
*End Instance
**  
*Instance, name=Part-1-ele-26-GP-3, part=Part-1
226.712217333, -2.08778267024,           0.
*End Instance
**  
*Instance, name=Part-1-ele-26-GP-4, part=Part-1
193.687783667, -2.08778267024,           0.
*End Instance
**  
*Instance, name=Part-1-ele-27-GP-1, part=Part-1
250.887783837, -35.1122185298,           0.
*End Instance
**  
*Instance, name=Part-1-ele-27-GP-2, part=Part-1
283.912226163, -35.1122185298,           0.
*End Instance
**  
*Instance, name=Part-1-ele-27-GP-3, part=Part-1
283.912226163, -2.08778267024,           0.
*End Instance
**  
*Instance, name=Part-1-ele-27-GP-4, part=Part-1
250.887783837, -2.08778267024,           0.
*End Instance
**  
*Instance, name=Part-1-ele-28-GP-1, part=Part-1
308.087789497, -35.1122185298,           0.
*End Instance
**  
*Instance, name=Part-1-ele-28-GP-2, part=Part-1
341.112214503, -35.1122185298,           0.
*End Instance
**  
*Instance, name=Part-1-ele-28-GP-3, part=Part-1
341.112214503, -2.08778267024,           0.
*End Instance
**  
*Instance, name=Part-1-ele-28-GP-4, part=Part-1
308.087789497, -2.08778267024,           0.
*End Instance
**  
*Instance, name=Part-1-ele-29-GP-1, part=Part-1
365.287777837, -35.1122185298,           0.
*End Instance
**  
*Instance, name=Part-1-ele-29-GP-2, part=Part-1
398.312220163, -35.1122185298,           0.
*End Instance
**  
*Instance, name=Part-1-ele-29-GP-3, part=Part-1
398.312220163, -2.08778267024,           0.
*End Instance
**  
*Instance, name=Part-1-ele-29-GP-4, part=Part-1
365.287777837, -2.08778267024,           0.
*End Instance
**  
*Instance, name=Part-1-ele-30-GP-1, part=Part-1
422.487783497, -35.1122185298,           0.
*End Instance
**  
*Instance, name=Part-1-ele-30-GP-2, part=Part-1
455.512208503, -35.1122185298,           0.
*End Instance
**  
*Instance, name=Part-1-ele-30-GP-3, part=Part-1
455.512208503, -2.08778267024,           0.
*End Instance
**  
*Instance, name=Part-1-ele-30-GP-4, part=Part-1
422.487783497, -2.08778267024,           0.
*End Instance
**  
*Instance, name=Part-1-ele-31-GP-1, part=Part-1
479.687771837, -35.1122185298,           0.
*End Instance
**  
*Instance, name=Part-1-ele-31-GP-2, part=Part-1
512.712214163, -35.1122185298,           0.
*End Instance
**  
*Instance, name=Part-1-ele-31-GP-3, part=Part-1
512.712214163, -2.08778267024,           0.
*End Instance
**  
*Instance, name=Part-1-ele-31-GP-4, part=Part-1
479.687771837, -2.08778267024,           0.
*End Instance
**  
*Instance, name=Part-1-ele-32-GP-1, part=Part-1
536.887783837, -35.1122185298,           0.
*End Instance
**  
*Instance, name=Part-1-ele-32-GP-2, part=Part-1
569.912226163, -35.1122185298,           0.
*End Instance
**  
*Instance, name=Part-1-ele-32-GP-3, part=Part-1
569.912226163, -2.08778267024,           0.
*End Instance
**  
*Instance, name=Part-1-ele-32-GP-4, part=Part-1
536.887783837, -2.08778267024,           0.
*End Instance
**  
*Instance, name=Part-1-ele-33-GP-1, part=Part-1
594.087795837, -35.1122185298,           0.
*End Instance
**  
*Instance, name=Part-1-ele-33-GP-2, part=Part-1
627.112238163, -35.1122185298,           0.
*End Instance
**  
*Instance, name=Part-1-ele-33-GP-3, part=Part-1
627.112238163, -2.08778267024,           0.
*End Instance
**  
*Instance, name=Part-1-ele-33-GP-4, part=Part-1
594.087795837, -2.08778267024,           0.
*End Instance
**  
*Instance, name=Part-1-ele-34-GP-1, part=Part-1
651.287795158, -35.1122185298,           0.
*End Instance
**  
*Instance, name=Part-1-ele-34-GP-2, part=Part-1
684.312202842, -35.1122185298,           0.
*End Instance
**  
*Instance, name=Part-1-ele-34-GP-3, part=Part-1
684.312202842, -2.08778267024,           0.
*End Instance
**  
*Instance, name=Part-1-ele-34-GP-4, part=Part-1
651.287795158, -2.08778267024,           0.
*End Instance
**  
*Instance, name=Part-1-ele-35-GP-1, part=Part-1
708.487759837, -35.1122185298,           0.
*End Instance
**  
*Instance, name=Part-1-ele-35-GP-2, part=Part-1
741.512202163, -35.1122185298,           0.
*End Instance
**  
*Instance, name=Part-1-ele-35-GP-3, part=Part-1
741.512202163, -2.08778267024,           0.
*End Instance
**  
*Instance, name=Part-1-ele-35-GP-4, part=Part-1
708.487759837, -2.08778267024,           0.
*End Instance
**  
*Instance, name=Part-1-ele-36-GP-1, part=Part-1
765.687771837, -35.1122185298,           0.
*End Instance
**  
*Instance, name=Part-1-ele-36-GP-2, part=Part-1
798.712214163, -35.1122185298,           0.
*End Instance
**  
*Instance, name=Part-1-ele-36-GP-3, part=Part-1
798.712214163, -2.08778267024,           0.
*End Instance
**  
*Instance, name=Part-1-ele-36-GP-4, part=Part-1
765.687771837, -2.08778267024,           0.
*End Instance
**  
*Instance, name=Part-1-ele-37-GP-1, part=Part-1
822.887783837, -35.1122185298,           0.
*End Instance
**  
*Instance, name=Part-1-ele-37-GP-2, part=Part-1
855.912226163, -35.1122185298,           0.
*End Instance
**  
*Instance, name=Part-1-ele-37-GP-3, part=Part-1
855.912226163, -2.08778267024,           0.
*End Instance
**  
*Instance, name=Part-1-ele-37-GP-4, part=Part-1
822.887783837, -2.08778267024,           0.
*End Instance
**  
*Instance, name=Part-1-ele-38-GP-1, part=Part-1
880.087795837, -35.1122185298,           0.
*End Instance
**  
*Instance, name=Part-1-ele-38-GP-2, part=Part-1
913.112238163, -35.1122185298,           0.
*End Instance
**  
*Instance, name=Part-1-ele-38-GP-3, part=Part-1
913.112238163, -2.08778267024,           0.
*End Instance
**  
*Instance, name=Part-1-ele-38-GP-4, part=Part-1
880.087795837, -2.08778267024,           0.
*End Instance
**  
*Instance, name=Part-1-ele-39-GP-1, part=Part-1
937.287796003, -35.1122185298,           0.
*End Instance
**  
*Instance, name=Part-1-ele-39-GP-2, part=Part-1
970.312205997, -35.1122185298,           0.
*End Instance
**  
*Instance, name=Part-1-ele-39-GP-3, part=Part-1
970.312205997, -2.08778267024,           0.
*End Instance
**  
*Instance, name=Part-1-ele-39-GP-4, part=Part-1
937.287796003, -2.08778267024,           0.
*End Instance
**  
*Instance, name=Part-1-ele-40-GP-1, part=Part-1
994.487776094, -35.1122185298,           0.
*End Instance
**  
*Instance, name=Part-1-ele-40-GP-2, part=Part-1
1027.51225191, -35.1122185298,           0.
*End Instance
**  
*Instance, name=Part-1-ele-40-GP-3, part=Part-1
1027.51225191, -2.08778267024,           0.
*End Instance
**  
*Instance, name=Part-1-ele-40-GP-4, part=Part-1
994.487776094, -2.08778267024,           0.
*End Instance
**  
*Nset, nset=N1-RP, instance=beam-1
 1,
*Nset, nset=N2-RP, instance=beam-1
 2,
*Nset, nset=N3-RP, instance=beam-1
 3,
*Nset, nset=N4-RP, instance=beam-1
 4,
*Nset, nset=N5-RP, instance=beam-1
 5,
*Nset, nset=N6-RP, instance=beam-1
 6,
*Nset, nset=N7-RP, instance=beam-1
 7,
*Nset, nset=N8-RP, instance=beam-1
 8,
*Nset, nset=N9-RP, instance=beam-1
 9,
*Nset, nset=N10-RP, instance=beam-1
 10,
*Nset, nset=N11-RP, instance=beam-1
 11,
*Nset, nset=N12-RP, instance=beam-1
 12,
*Nset, nset=N13-RP, instance=beam-1
 13,
*Nset, nset=N14-RP, instance=beam-1
 14,
*Nset, nset=N15-RP, instance=beam-1
 15,
*Nset, nset=N16-RP, instance=beam-1
 16,
*Nset, nset=N17-RP, instance=beam-1
 17,
*Nset, nset=N18-RP, instance=beam-1
 18,
*Nset, nset=N19-RP, instance=beam-1
 19,
*Nset, nset=N20-RP, instance=beam-1
 20,
** ... 86 like lines cut
*Nset, nset=SET-1, instance=beam-1
 43,
*Nset, nset=SET-12225, instance=beam-1, generate
  1,  43,  21
*Elset, elset=SET-12225, instance=beam-1
  1, 21
*Nset, nset=SET-12226, instance=beam-1, generate
 21,  63,  21
*Elset, elset=SET-12226, instance=beam-1
 20, 40
*End Assembly
** 
** MATERIALS
** 
*Material, name=CARBON-FIBRE
*Elastic, type=ENGINEERING CONSTANTS
230000.,    15000.,    15000.,       0.2,       0.2, 0.0714285,    15000.,    15000.
     7000.,
*Material, name=CARBON-FIBRE-ISOTROPIC
*Elastic
230000., 0.2
*Material, name=EPOXY-DAM
*Elastic
3350., 0.35
*Mohr Coulomb
15.,10.
*Mohr Coulomb Hardening
 39.1,0.
*Material, name=EPOXY-ELASTIC
*Elastic
3350., 0.35
*Material, name=EPOXY-PLASTIC
*Elastic
3900., 0.39
*Plastic
  29.,    0.
  59.,  0.02
  93., 0.049
 95.5, 0.058
*Material, name=MATERIAL-7
*Elastic
 1e-06,0.
*Material, name=RAMBERG-OSGOOD
*Deformation Plasticity
 4274.75,     0.35,    172.4,       5., 0.428571
** 
** BOUNDARY CONDITIONS
** 
** Name: Disp-BC-1 Type: Displacement/Rotation
*Boundary
SET-12225, 1, 1
** Name: Disp-BC-2 Type: Displacement/Rotation
*Boundary
SET-12225, 2, 2
** ----------------------------------------------------------------
** 
** STEP: Step-1
** 
*Step, name=Step-1, nlgeom=NO
*Static
1., 1., 1e-05, 1.
** 
** BOUNDARY CONDITIONS
** 
** Name: Disp-BC-3 Type: Displacement/Rotation
*Boundary
SET-12226, 2, 2, -381.
** 
** OUTPUT REQUESTS
** 
*Restart, write, frequency=0
** 
** FIELD OUTPUT: F-Output-1
** 
*Output, field, variable=PRESELECT
** 
** HISTORY OUTPUT: H-Output-1
** 
*Output, history, variable=PRESELECT
*End Step
